/*--------------------------------*- C++ -*----------------------------------*\
| =========                 |                                                 |
| \\      /  F ield         | OpenFOAM: The Open Source CFD Toolbox           |
|  \\    /   O peration     | Version:  2.4.x                                 |
|   \\  /    A nd           | Web:      www.OpenFOAM.org                      |
|    \\/     M anipulation  |                                                 |
\*---------------------------------------------------------------------------*/
FoamFile
{
    version     2.0;
    format      ascii;
    class       dictionary;
    object      controlDict;
}
// * * * * * * * * * * * * * * * * * * * * * * * * * * * * * * * * * * * * * //

application     interFoam;

startFrom       startTime;

startTime       0;

stopAt          endTime;

endTime         6;

deltaT          0.01;

writeControl    runTime;

writeInterval   0.01;

writeFormat     binary;

writePrecision  12;

writeCompression compressed;

timeFormat      general;

timePrecision   6;

runTimeModifiable true;

adjustTimeStep  false;

maxCo           0.9;
maxAlphaCo      0.5;

libs
(
    "libOpenFOAM.so"
    "libincompressibleTurbulenceModel.so"
    "libincompressibleRASModels.so"
    "libturbinesFoam.so"
);

functions
{
    fieldAverage
    {
        type            fieldAverage;
        functionObjectLibs ("libfieldFunctionObjects.so");
        enabled         true;
        timeStart       3.0;
        outputControl   outputTime;
        resetOnRestart  true;
        resetOnOutput   false;

        fields
        (
            U
            {
                mean        on;
                prime2Mean  on;
                base        time;
            }

            p
            {
                mean        on;
                prime2Mean  off;
                base        time;
            }

            nut
            {
                mean        on;
                prime2Mean  off;
                base        time;
            }

            k
            {
                mean        on;
                prime2Mean  off;
                base        time;
            }
        );
    }
}

DebugSwitches
{
    crossFlowTurbineALSource 0;
    actuatorLineSource  0;
    actuatorLineElement 0;
    LeishmanBeddoes 0;
    LeishmanBeddoes3G 0;
    LeishmanBeddoesSGC 0;
}

// ************************************************************************* //
