/*--------------------------------*- C++ -*----------------------------------*\
| =========                 |                                                 |
| \\      /  F ield         | OpenFOAM: The Open Source CFD Toolbox           |
|  \\    /   O peration     | Version:  3.0.x                                 |
|   \\  /    A nd           | Web:      www.OpenFOAM.org                      |
|    \\/     M anipulation  |                                                 |
\*---------------------------------------------------------------------------*/
FoamFile
{
    version     2.0;
    format      ascii;
    class       dictionary;
    object      controlDict;
}
// * * * * * * * * * * * * * * * * * * * * * * * * * * * * * * * * * * * * * //

application     pimpleFoam;

startFrom       startTime;

startTime       0;

stopAt          endTime;

endTime         10;

deltaT          0.002;

writeControl    runTime;

writeInterval   0.01;

writeFormat     binary;

writePrecision  12;

writeCompression compressed;

timeFormat      general;

timePrecision   6;

runTimeModifiable true;

adjustTimeStep  false;

maxCo           0.9;

libs
(
    "libturbinesFoam.so"
);

functions
{
    turbulenceFields
    {
        type            turbulenceFields;
        functionObjectLibs ("libutilityFunctionObjects.so");
        enabled         true;
        fields          (k R);
    }

    fieldAverage
    {
        type            fieldAverage;
        functionObjectLibs ("libfieldFunctionObjects.so");
        enabled         true;
        timeStart       5.0;
        outputControl   outputTime;
        resetOnRestart  true;
        resetOnOutput   false;

        fields
        (
            U
            {
                mean        on;
                prime2Mean  on;
                base        time;
            }

            p
            {
                mean        on;
                prime2Mean  off;
                base        time;
            }

            turbulenceProperties:k
            {
                mean        on;
                prime2Mean  off;
                base        time;
            }

            turbulenceProperties:R
            {
                mean        on;
                prime2Mean  off;
                base        time;
            }
        );
    }
}

DebugSwitches
{
    crossFlowTurbineALSource 0;
    actuatorLineSource  0;
    actuatorLineElement 0;
    LeishmanBeddoes 0;
    LeishmanBeddoes3G $LeishmanBeddoes;
    LeishmanBeddoesSGC $LeishmanBeddoes;
}

// ************************************************************************* //
